Version 4
SHEET 1 2028 836
WIRE 1664 -208 1424 -208
WIRE 1856 -192 1728 -192
WIRE 1968 -192 1856 -192
WIRE 1664 -176 1616 -176
WIRE -672 -48 -672 -160
WIRE 1424 -32 1424 -208
WIRE 192 -16 128 -16
WIRE 304 -16 272 -16
WIRE 1616 0 1616 -176
WIRE 1712 0 1616 0
WIRE 1856 0 1856 -192
WIRE 1856 0 1792 0
WIRE 1616 48 1616 0
WIRE -672 64 -672 32
WIRE -576 64 -672 64
WIRE -672 112 -672 64
WIRE -64 144 -144 144
WIRE -16 144 -64 144
WIRE 128 144 128 -16
WIRE 128 144 64 144
WIRE 208 144 128 144
WIRE -144 160 -144 144
WIRE 304 160 304 -16
WIRE 304 160 272 160
WIRE 368 160 304 160
WIRE 464 160 368 160
WIRE 656 160 544 160
WIRE 208 176 176 176
WIRE 736 176 736 112
WIRE 800 176 736 176
WIRE 928 176 880 176
WIRE 1424 176 1424 48
WIRE 1616 176 1616 128
WIRE 176 224 176 176
WIRE 464 240 416 240
WIRE 656 240 656 160
WIRE 656 240 544 240
WIRE -672 288 -672 192
WIRE 736 336 736 176
WIRE 784 336 736 336
WIRE 928 352 928 176
WIRE 928 352 848 352
WIRE 960 352 928 352
WIRE 1024 352 960 352
WIRE 1072 352 1024 352
WIRE 320 368 320 352
WIRE 416 368 416 240
WIRE 416 368 320 368
WIRE 656 368 656 240
WIRE 784 368 656 368
WIRE 320 400 320 368
FLAG 176 224 0
FLAG -144 240 0
FLAG -576 64 0
FLAG 240 128 Vcc+
IOPIN 240 128 In
FLAG 240 192 Vcc-
IOPIN 240 192 In
FLAG -672 -160 Vcc+
IOPIN -672 -160 Out
FLAG -672 288 Vcc-
IOPIN -672 288 Out
FLAG 368 160 S
FLAG 816 320 Vcc+
IOPIN 816 320 In
FLAG 816 384 Vcc-
IOPIN 816 384 In
FLAG 1152 352 0
FLAG 960 352 Off
FLAG 736 32 0
FLAG -64 144 E
FLAG 320 480 0
FLAG 320 272 Vcc+
IOPIN 320 272 In
FLAG 1024 352 Cond
IOPIN 1024 352 In
FLAG 1424 176 0
FLAG 1616 176 0
FLAG 1696 -160 Vcc-
IOPIN 1696 -160 In
FLAG 1696 -224 Vcc+
IOPIN 1696 -224 In
FLAG 1968 -192 Vs1
SYMBOL res 80 128 R90
WINDOW 0 0 56 VBottom 2
WINDOW 3 32 56 VTop 2
SYMATTR InstName R1
SYMATTR Value 1.77k
SYMBOL res 288 -32 R90
WINDOW 0 0 56 VBottom 2
WINDOW 3 32 56 VTop 2
SYMATTR InstName R2
SYMATTR Value 4.7k
SYMBOL voltage -672 -64 R0
WINDOW 123 0 0 Left 0
WINDOW 39 0 0 Left 0
SYMATTR InstName V2
SYMATTR Value 15
SYMBOL voltage -672 96 R0
WINDOW 123 0 0 Left 0
WINDOW 39 0 0 Left 0
SYMATTR InstName V3
SYMATTR Value 15
SYMBOL res 560 144 R90
WINDOW 0 0 56 VBottom 2
WINDOW 3 32 56 VTop 2
SYMATTR InstName R3
SYMATTR Value 1k
SYMBOL res 560 224 R90
WINDOW 0 0 56 VBottom 2
WINDOW 3 32 56 VTop 2
SYMATTR InstName R4
SYMATTR Value 1k
SYMBOL res 896 160 R90
WINDOW 0 0 56 VBottom 2
WINDOW 3 32 56 VTop 2
SYMATTR InstName R5
SYMATTR Value 1k
SYMBOL res 1168 336 R90
WINDOW 0 0 56 VBottom 2
WINDOW 3 32 56 VTop 2
SYMATTR InstName R6
SYMATTR Value 1k
SYMBOL voltage -144 144 R0
WINDOW 0 24 96 Left 2
WINDOW 3 24 16 Left 2
WINDOW 123 0 0 Left 0
WINDOW 39 0 0 Left 0
SYMATTR InstName V1
SYMATTR Value 0
SYMBOL res 720 16 R0
SYMATTR InstName R7
SYMATTR Value 1k
SYMBOL res 304 384 R0
SYMATTR InstName R8
SYMATTR Value 2.2
SYMBOL res 304 256 R0
SYMATTR InstName R9
SYMATTR Value 12.8
SYMBOL TL081 240 96 R0
SYMATTR InstName U3
SYMBOL TL081 816 288 R0
SYMATTR InstName U4
SYMBOL voltage 1424 -48 R0
WINDOW 123 0 0 Left 0
WINDOW 39 0 0 Left 0
SYMATTR InstName Ve
SYMATTR Value 0
SYMBOL TL081 1696 -256 R0
SYMATTR InstName U1
SYMBOL res 1808 -16 R90
WINDOW 0 0 56 VBottom 2
WINDOW 3 32 56 VTop 2
SYMATTR InstName R11
SYMATTR Value 10k
SYMBOL res 1600 32 R0
SYMATTR InstName R10
SYMATTR Value 6.8k
TEXT -184 392 Left 2 ;.dc V1 0.074 0.575 0.01
TEXT 392 408 Left 2 ;Rajouter un offset de V4
TEXT -288 288 Left 2 ;Inverser et amplifier le signal V1 de -R2/R1
TEXT 1392 264 Left 2 !.dc Ve -20 20 0.001
