Version 4
SHEET 1 1108 680
WIRE -32 -256 -96 -256
WIRE 112 -256 48 -256
WIRE 432 -256 368 -256
WIRE 544 -256 496 -256
WIRE -576 -240 -656 -240
WIRE -416 -240 -496 -240
WIRE -208 -128 -240 -128
WIRE -96 -128 -96 -256
WIRE -96 -128 -128 -128
WIRE 1008 -80 1008 -160
WIRE -96 -64 -96 -128
WIRE 16 -64 -96 -64
WIRE -816 -48 -960 -48
WIRE -656 -48 -656 -240
WIRE -656 -48 -736 -48
WIRE -544 -48 -656 -48
WIRE 112 -48 112 -256
WIRE 112 -48 80 -48
WIRE 160 -48 112 -48
WIRE 208 -48 160 -48
WIRE 368 -48 368 -256
WIRE 368 -48 288 -48
WIRE 432 -48 368 -48
WIRE -416 -32 -416 -240
WIRE -416 -32 -480 -32
WIRE -240 -32 -240 -128
WIRE -240 -32 -416 -32
WIRE -224 -32 -240 -32
WIRE -80 -32 -144 -32
WIRE 16 -32 -80 -32
WIRE 544 -32 544 -256
WIRE 544 -32 496 -32
WIRE 640 -32 544 -32
WIRE 736 -32 640 -32
WIRE -544 -16 -624 -16
WIRE 432 -16 368 -16
WIRE 1008 32 1008 0
WIRE 1088 32 1008 32
WIRE 368 48 368 -16
WIRE 1008 80 1008 32
WIRE -960 112 -960 -48
WIRE -624 112 -624 -16
WIRE -624 112 -672 112
WIRE -80 112 -80 -32
WIRE -624 144 -624 112
WIRE 640 176 640 -32
WIRE 640 176 432 176
WIRE 112 192 -32 192
WIRE 256 192 112 192
WIRE 368 192 256 192
WIRE 496 208 432 208
WIRE 1008 240 1008 160
WIRE -960 256 -960 192
WIRE -624 256 -624 224
WIRE -80 288 -80 208
WIRE 256 368 256 192
WIRE 336 368 256 368
WIRE 496 368 496 208
WIRE 496 368 416 368
WIRE 496 400 496 368
WIRE 496 496 496 480
FLAG 1088 32 0
FLAG 1008 -160 Vcc+
IOPIN 1008 -160 Out
FLAG 1008 240 Vcc-
IOPIN 1008 240 Out
FLAG 48 -80 Vcc+
IOPIN 48 -80 In
FLAG 48 -16 Vcc-
IOPIN 48 -16 In
FLAG 368 48 0
FLAG 400 160 Vcc+
IOPIN 400 160 In
FLAG 464 -64 Vcc+
IOPIN 464 -64 In
FLAG 464 0 Vcc-
IOPIN 464 0 In
FLAG 400 224 Vcc-
IOPIN 400 224 In
FLAG -80 288 0
FLAG 496 496 0
FLAG -960 256 0
FLAG -624 256 0
FLAG -752 112 Vcc+
IOPIN -752 112 In
FLAG -512 -64 Vcc+
IOPIN -512 -64 In
FLAG -512 0 Vcc-
IOPIN -512 0 In
FLAG 736 -32 Vs3
FLAG 112 192 Vs1
FLAG 160 -48 Vs2
SYMBOL TL081 48 -112 R0
SYMATTR InstName U1
SYMBOL voltage 1008 -96 R0
WINDOW 123 0 0 Left 0
WINDOW 39 0 0 Left 0
SYMATTR InstName V2
SYMATTR Value 15
SYMBOL voltage 1008 64 R0
WINDOW 123 0 0 Left 0
WINDOW 39 0 0 Left 0
SYMATTR InstName V3
SYMATTR Value 15
SYMBOL res 64 -272 R90
WINDOW 0 0 56 VBottom 2
WINDOW 3 32 56 VTop 2
SYMATTR InstName R3
SYMATTR Value 2.2k
SYMBOL res -112 -144 R90
WINDOW 0 0 56 VBottom 2
WINDOW 3 32 56 VTop 2
SYMATTR InstName R2
SYMATTR Value 2.2k
SYMBOL res -128 -48 R90
WINDOW 0 0 56 VBottom 2
WINDOW 3 32 56 VTop 2
SYMATTR InstName R1
SYMATTR Value 4.7k
SYMBOL res 304 -64 R90
WINDOW 0 0 56 VBottom 2
WINDOW 3 32 56 VTop 2
SYMATTR InstName R6
SYMATTR Value 1k
SYMBOL TL081 464 -96 R0
SYMATTR InstName U2
SYMBOL cap 496 -272 R90
WINDOW 0 0 32 VBottom 2
WINDOW 3 32 32 VTop 2
SYMATTR InstName C
SYMATTR Value 15nF
SYMBOL TL081 400 128 M0
SYMATTR InstName Vgs
SYMBOL nmos -32 112 M0
SYMATTR InstName M1
SYMATTR Value 2N7002
SYMBOL res 432 352 R90
WINDOW 0 0 56 VBottom 2
WINDOW 3 32 56 VTop 2
SYMATTR InstName R5
SYMATTR Value 10k
SYMBOL res 480 384 R0
SYMATTR InstName R4
SYMATTR Value 2.2k
SYMBOL TL081 -512 -96 R0
SYMATTR InstName U4
SYMBOL voltage -960 96 R0
SYMATTR InstName V1
SYMATTR Value 0.574
SYMBOL res -720 -64 R90
WINDOW 0 0 56 VBottom 2
WINDOW 3 32 56 VTop 2
SYMATTR InstName R7
SYMATTR Value 1k
SYMBOL res -480 -256 R90
WINDOW 0 0 56 VBottom 2
WINDOW 3 32 56 VTop 2
SYMATTR InstName R8
SYMATTR Value 27k
SYMBOL res -640 128 R0
SYMATTR InstName R9
SYMATTR Value 1k
SYMBOL res -656 96 R90
WINDOW 0 0 56 VBottom 2
WINDOW 3 32 56 VTop 2
SYMATTR InstName R10
SYMATTR Value 23.8k
TEXT -760 328 Left 2 ;.dc V1 0.074 0.575 0.01
TEXT -64 432 Left 2 ;Vs1 = Vcc+ si Vs3 < Vcc+ * (R4/R5+R4)\nVs1 = Vcc- si Vs3 > Vcc- * (R4/R5+R4)
TEXT 384 -352 Left 2 ;Vs3 = (-Vs2/(15*10^-9)*R4)*t avec t le temps\nOn peut donc jouer sur la pente de la courbe en sortie
TEXT -776 384 Left 2 !.tran 0.5m uic
